/*--------------------------------*- C++ -*----------------------------------*\
  =========                 |
  \\      /  F ield         | OpenFOAM: The Open Source CFD Toolbox
   \\    /   O peration     | Website:  https://openfoam.org
    \\  /    A nd           | Version:  13
     \\/     M anipulation  |
\*---------------------------------------------------------------------------*/
FoamFile
{
    format      ascii;
    class       featureEdgeMesh;
    location    "constant/triSurface";
    object      inlet.eMesh;
}
// * * * * * * * * * * * * * * * * * * * * * * * * * * * * * * * * * * * * * //


// points:

72
(
(-0.001 0 0.02)
(-0.000996195 -8.71557e-05 0.02)
(-0.000984808 -0.000173648 0.02)
(-0.000965926 -0.000258819 0.02)
(-0.000939693 -0.00034202 0.02)
(-0.000906308 -0.000422618 0.02)
(-0.000866025 -0.0005 0.02)
(-0.000819152 -0.000573576 0.02)
(-0.000766044 -0.000642788 0.02)
(-0.000707107 -0.000707107 0.02)
(-0.000642788 -0.000766044 0.02)
(-0.000573576 -0.000819152 0.02)
(-0.0005 -0.000866025 0.02)
(-0.000422618 -0.000906308 0.02)
(-0.00034202 -0.000939693 0.02)
(-0.000258819 -0.000965926 0.02)
(-0.000173648 -0.000984808 0.02)
(-8.71557e-05 -0.000996195 0.02)
(-1.96005e-18 -0.001 0.02)
(8.71557e-05 -0.000996195 0.02)
(0.000173648 -0.000984808 0.02)
(0.000258819 -0.000965926 0.02)
(0.00034202 -0.000939693 0.02)
(0.000422618 -0.000906308 0.02)
(0.0005 -0.000866025 0.02)
(0.000573576 -0.000819152 0.02)
(0.000642788 -0.000766044 0.02)
(0.000707107 -0.000707107 0.02)
(0.000766044 -0.000642788 0.02)
(0.000819152 -0.000573576 0.02)
(0.000866025 -0.0005 0.02)
(0.000906308 -0.000422618 0.02)
(0.000939693 -0.00034202 0.02)
(0.000965926 -0.000258819 0.02)
(0.000984808 -0.000173648 0.02)
(0.000996195 -8.71557e-05 0.02)
(0.001 1.22465e-19 0.02)
(0.000996195 8.71557e-05 0.02)
(0.000984808 0.000173648 0.02)
(0.000965926 0.000258819 0.02)
(0.000939693 0.00034202 0.02)
(0.000906308 0.000422618 0.02)
(0.000866025 0.0005 0.02)
(0.000819152 0.000573576 0.02)
(0.000766044 0.000642788 0.02)
(0.000707107 0.000707107 0.02)
(0.000642788 0.000766044 0.02)
(0.000573576 0.000819152 0.02)
(0.0005 0.000866025 0.02)
(0.000422618 0.000906308 0.02)
(0.00034202 0.000939693 0.02)
(0.000258819 0.000965926 0.02)
(0.000173648 0.000984808 0.02)
(8.71557e-05 0.000996195 0.02)
(7.27366e-19 0.001 0.02)
(-8.71557e-05 0.000996195 0.02)
(-0.000173648 0.000984808 0.02)
(-0.000258819 0.000965926 0.02)
(-0.00034202 0.000939693 0.02)
(-0.000422618 0.000906308 0.02)
(-0.0005 0.000866025 0.02)
(-0.000573576 0.000819152 0.02)
(-0.000642788 0.000766044 0.02)
(-0.000707107 0.000707107 0.02)
(-0.000766044 0.000642788 0.02)
(-0.000819152 0.000573576 0.02)
(-0.000866025 0.0005 0.02)
(-0.000906308 0.000422618 0.02)
(-0.000939693 0.00034202 0.02)
(-0.000965926 0.000258819 0.02)
(-0.000984808 0.000173648 0.02)
(-0.000996195 8.71557e-05 0.02)
)


// edges:

72
(
(0 1)
(1 2)
(2 3)
(3 4)
(4 5)
(5 6)
(6 7)
(7 8)
(8 9)
(9 10)
(10 11)
(11 12)
(12 13)
(13 14)
(14 15)
(15 16)
(16 17)
(17 18)
(18 19)
(19 20)
(20 21)
(21 22)
(22 23)
(23 24)
(24 25)
(25 26)
(26 27)
(27 28)
(28 29)
(29 30)
(30 31)
(31 32)
(32 33)
(33 34)
(34 35)
(35 36)
(36 37)
(37 38)
(38 39)
(39 40)
(40 41)
(41 42)
(42 43)
(43 44)
(44 45)
(45 46)
(46 47)
(47 48)
(48 49)
(49 50)
(50 51)
(51 52)
(52 53)
(53 54)
(54 55)
(55 56)
(56 57)
(57 58)
(58 59)
(59 60)
(60 61)
(61 62)
(62 63)
(63 64)
(64 65)
(65 66)
(66 67)
(67 68)
(68 69)
(69 70)
(70 71)
(71 0)
)

// * * * * * * * * * * * * * * * * * * * * * * * * * * * * * * * * * * * * * //


// ************************************************************************* //
