/*--------------------------------*- C++ -*----------------------------------*\
| =========                 |                                                 |
| \\      /  F ield         | OpenFOAM: The Open Source CFD Toolbox           |
|  \\    /   O peration     | Version:  2412                                  |
|   \\  /    A nd           | Website:  www.openfoam.com                      |
|    \\/     M anipulation  |                                                 |
\*---------------------------------------------------------------------------*/
FoamFile
{
    version     2.0;
    format      ascii;
    arch        "LSB;label=32;scalar=64";
    class       featureEdgeMesh;
    location    "constant/triSurface";
    object      outlet.eMesh;
}
// * * * * * * * * * * * * * * * * * * * * * * * * * * * * * * * * * * * * * //


// points:

72
(
(-0.00246173 0.00574791 0)
(-0.00245634 0.0056244 0)
(-0.00247787 0.00587047 0)
(-0.00250462 0.00599117 0)
(-0.0025418 0.00610907 0)
(-0.00258911 0.00622328 0)
(-0.00264619 0.00633294 0)
(-0.00271261 0.0064372 0)
(-0.00278787 0.00653528 0)
(-0.00287139 0.00662642 0)
(-0.00296253 0.00670994 0)
(-0.00306061 0.0067852 0)
(-0.00316487 0.00685162 0)
(-0.00327453 0.0069087 0)
(-0.00338874 0.00695601 0)
(-0.00350665 0.00699319 0)
(-0.00362734 0.00701994 0)
(-0.0037499 0.00703608 0)
(-0.00387341 0.00704147 0)
(-0.00399692 0.00703608 0)
(-0.00411948 0.00701994 0)
(-0.00424017 0.00699319 0)
(-0.00435808 0.00695601 0)
(-0.00447229 0.0069087 0)
(-0.00458195 0.00685162 0)
(-0.00468621 0.0067852 0)
(-0.00478429 0.00670994 0)
(-0.00487543 0.00662642 0)
(-0.00495895 0.00653528 0)
(-0.00503421 0.0064372 0)
(-0.00510063 0.00633294 0)
(-0.00515771 0.00622328 0)
(-0.00520502 0.00610907 0)
(-0.00524219 0.00599117 0)
(-0.00526895 0.00587047 0)
(-0.00528509 0.00574791 0)
(-0.00529048 0.0056244 0)
(-0.00528509 0.0055009 0)
(-0.00526895 0.00537833 0)
(-0.00524219 0.00525764 0)
(-0.00520502 0.00513974 0)
(-0.00515771 0.00502552 0)
(-0.00510063 0.00491587 0)
(-0.00503421 0.0048116 0)
(-0.00495895 0.00471353 0)
(-0.00487543 0.00462238 0)
(-0.00478429 0.00453886 0)
(-0.00468621 0.00446361 0)
(-0.00458195 0.00439718 0)
(-0.00447229 0.0043401 0)
(-0.00435808 0.00429279 0)
(-0.00424017 0.00425562 0)
(-0.00411948 0.00422886 0)
(-0.00399692 0.00421272 0)
(-0.00387341 0.00420733 0)
(-0.0037499 0.00421272 0)
(-0.00362734 0.00422886 0)
(-0.00350665 0.00425562 0)
(-0.00338874 0.00429279 0)
(-0.00327453 0.0043401 0)
(-0.00316487 0.00439718 0)
(-0.00306061 0.00446361 0)
(-0.00296253 0.00453886 0)
(-0.00287139 0.00462238 0)
(-0.00278787 0.00471353 0)
(-0.00271261 0.0048116 0)
(-0.00264619 0.00491587 0)
(-0.00258911 0.00502552 0)
(-0.0025418 0.00513974 0)
(-0.00250462 0.00525764 0)
(-0.00247787 0.00537833 0)
(-0.00246173 0.0055009 0)
)


// edges:

72
(
(0 1)
(2 0)
(3 2)
(4 3)
(5 4)
(6 5)
(7 6)
(8 7)
(9 8)
(10 9)
(11 10)
(12 11)
(13 12)
(14 13)
(15 14)
(16 15)
(17 16)
(18 17)
(19 18)
(20 19)
(21 20)
(22 21)
(23 22)
(24 23)
(25 24)
(26 25)
(27 26)
(28 27)
(29 28)
(30 29)
(31 30)
(32 31)
(33 32)
(34 33)
(35 34)
(36 35)
(37 36)
(38 37)
(39 38)
(40 39)
(41 40)
(42 41)
(43 42)
(44 43)
(45 44)
(46 45)
(47 46)
(48 47)
(49 48)
(50 49)
(51 50)
(52 51)
(53 52)
(54 53)
(55 54)
(56 55)
(57 56)
(58 57)
(59 58)
(60 59)
(61 60)
(62 61)
(63 62)
(64 63)
(65 64)
(66 65)
(67 66)
(68 67)
(69 68)
(70 69)
(71 70)
(1 71)
)

// * * * * * * * * * * * * * * * * * * * * * * * * * * * * * * * * * * * * * //


// ************************************************************************* //
