/*--------------------------------*- C++ -*----------------------------------*\
| =========                 |                                                 |
| \\      /  F ield         | OpenFOAM: The Open Source CFD Toolbox           |
|  \\    /   O peration     | Version:  2412                                  |
|   \\  /    A nd           | Website:  www.openfoam.com                      |
|    \\/     M anipulation  |                                                 |
\*---------------------------------------------------------------------------*/
FoamFile
{
    version     2.0;
    format      ascii;
    arch        "LSB;label=32;scalar=64";
    class       extendedFeatureEdgeMesh;
    location    "constant/extendedFeatureEdgeMesh";
    object      inlet.extendedFeatureEdgeMesh;
}
// * * * * * * * * * * * * * * * * * * * * * * * * * * * * * * * * * * * * * //

// points

72
(
(-0.001 0 0.02)
(-0.000996195 -8.71557e-05 0.02)
(-0.000984808 -0.000173648 0.02)
(-0.000965926 -0.000258819 0.02)
(-0.000939693 -0.00034202 0.02)
(-0.000906308 -0.000422618 0.02)
(-0.000866025 -0.0005 0.02)
(-0.000819152 -0.000573576 0.02)
(-0.000766044 -0.000642788 0.02)
(-0.000707107 -0.000707107 0.02)
(-0.000642788 -0.000766044 0.02)
(-0.000573576 -0.000819152 0.02)
(-0.0005 -0.000866025 0.02)
(-0.000422618 -0.000906308 0.02)
(-0.00034202 -0.000939693 0.02)
(-0.000258819 -0.000965926 0.02)
(-0.000173648 -0.000984808 0.02)
(-8.71557e-05 -0.000996195 0.02)
(-1.96005e-18 -0.001 0.02)
(8.71557e-05 -0.000996195 0.02)
(0.000173648 -0.000984808 0.02)
(0.000258819 -0.000965926 0.02)
(0.00034202 -0.000939693 0.02)
(0.000422618 -0.000906308 0.02)
(0.0005 -0.000866025 0.02)
(0.000573576 -0.000819152 0.02)
(0.000642788 -0.000766044 0.02)
(0.000707107 -0.000707107 0.02)
(0.000766044 -0.000642788 0.02)
(0.000819152 -0.000573576 0.02)
(0.000866025 -0.0005 0.02)
(0.000906308 -0.000422618 0.02)
(0.000939693 -0.00034202 0.02)
(0.000965926 -0.000258819 0.02)
(0.000984808 -0.000173648 0.02)
(0.000996195 -8.71557e-05 0.02)
(0.001 1.22465e-19 0.02)
(0.000996195 8.71557e-05 0.02)
(0.000984808 0.000173648 0.02)
(0.000965926 0.000258819 0.02)
(0.000939693 0.00034202 0.02)
(0.000906308 0.000422618 0.02)
(0.000866025 0.0005 0.02)
(0.000819152 0.000573576 0.02)
(0.000766044 0.000642788 0.02)
(0.000707107 0.000707107 0.02)
(0.000642788 0.000766044 0.02)
(0.000573576 0.000819152 0.02)
(0.0005 0.000866025 0.02)
(0.000422618 0.000906308 0.02)
(0.00034202 0.000939693 0.02)
(0.000258819 0.000965926 0.02)
(0.000173648 0.000984808 0.02)
(8.71557e-05 0.000996195 0.02)
(7.27366e-19 0.001 0.02)
(-8.71557e-05 0.000996195 0.02)
(-0.000173648 0.000984808 0.02)
(-0.000258819 0.000965926 0.02)
(-0.00034202 0.000939693 0.02)
(-0.000422618 0.000906308 0.02)
(-0.0005 0.000866025 0.02)
(-0.000573576 0.000819152 0.02)
(-0.000642788 0.000766044 0.02)
(-0.000707107 0.000707107 0.02)
(-0.000766044 0.000642788 0.02)
(-0.000819152 0.000573576 0.02)
(-0.000866025 0.0005 0.02)
(-0.000906308 0.000422618 0.02)
(-0.000939693 0.00034202 0.02)
(-0.000965926 0.000258819 0.02)
(-0.000984808 0.000173648 0.02)
(-0.000996195 8.71557e-05 0.02)
)

// edges

72
(
(0 1)
(1 2)
(2 3)
(3 4)
(4 5)
(5 6)
(6 7)
(7 8)
(8 9)
(9 10)
(10 11)
(11 12)
(12 13)
(13 14)
(14 15)
(15 16)
(16 17)
(17 18)
(18 19)
(19 20)
(20 21)
(21 22)
(22 23)
(23 24)
(24 25)
(25 26)
(26 27)
(27 28)
(28 29)
(29 30)
(30 31)
(31 32)
(32 33)
(33 34)
(34 35)
(35 36)
(36 37)
(37 38)
(38 39)
(39 40)
(40 41)
(41 42)
(42 43)
(43 44)
(44 45)
(45 46)
(46 47)
(47 48)
(48 49)
(49 50)
(50 51)
(51 52)
(52 53)
(53 54)
(54 55)
(55 56)
(56 57)
(57 58)
(58 59)
(59 60)
(60 61)
(61 62)
(62 63)
(63 64)
(64 65)
(65 66)
(66 67)
(67 68)
(68 69)
(69 70)
(70 71)
(71 0)
)

// concaveStart mixedStart nonFeatureStart
0 0 0
// internalStart flatStart openStart multipleStart
0 0 0 72
// normals
70{(0 0 1)}
// normal volume types

70
(
0
0
0
0
0
0
0
0
0
0
0
0
0
0
0
0
0
0
0
0
0
0
0
0
0
0
0
0
0
0
0
0
0
0
0
0
0
0
0
0
0
0
0
0
0
0
0
0
0
0
0
0
0
0
0
0
0
0
0
0
0
0
0
0
0
0
0
0
0
0
)

// normalDirections

72
(
1(1)
1(1)
1(1)
1(1)
1(1)
1(1)
1(1)
1(1)
1(1)
1(1)
1(1)
1(1)
1(1)
1(1)
1(1)
1(1)
1(1)
1(1)
1(1)
1(1)
1(1)
1(1)
1(1)
1(1)
1(1)
1(1)
1(1)
1(1)
1(1)
1(1)
1(1)
1(1)
1(1)
1(1)
1(1)
1(1)
1(1)
1(1)
1(1)
1(1)
1(1)
1(1)
1(1)
1(1)
1(1)
1(1)
1(1)
1(1)
1(1)
1(1)
1(1)
1(1)
1(1)
1(1)
1(1)
1(1)
1(1)
1(1)
1(1)
1(1)
1(1)
1(1)
1(1)
1(1)
1(1)
1(1)
1(1)
1(1)
1(1)
1(1)
1(1)
1(1)
)

// edgeNormals

72
(
1(0)
1(1)
1(2)
1(3)
1(4)
1(5)
1(6)
1(7)
1(8)
1(9)
1(10)
1(11)
1(12)
1(13)
1(14)
1(15)
1(16)
1(17)
1(18)
1(19)
1(20)
1(21)
1(22)
1(23)
1(24)
1(25)
1(26)
1(27)
1(28)
1(29)
1(30)
1(31)
1(32)
1(33)
1(34)
1(35)
1(36)
1(37)
1(38)
1(39)
1(40)
1(41)
1(42)
1(43)
1(43)
1(44)
1(44)
1(45)
1(46)
1(47)
1(48)
1(49)
1(50)
1(51)
1(52)
1(53)
1(54)
1(55)
1(56)
1(57)
1(58)
1(59)
1(60)
1(61)
1(62)
1(63)
1(64)
1(65)
1(66)
1(67)
1(68)
1(69)
)

// featurePointNormals
0()
// featurePointEdges
0()
// regionEdges

72
(
0
1
2
3
4
5
6
7
8
9
10
11
12
13
14
15
16
17
18
19
20
21
22
23
24
25
26
27
28
29
30
31
32
33
34
35
36
37
38
39
40
41
42
43
44
45
46
47
48
49
50
51
52
53
54
55
56
57
58
59
60
61
62
63
64
65
66
67
68
69
70
71
)



// ************************************************************************* //
