/*--------------------------------*- C++ -*----------------------------------*\
  =========                 |
  \\      /  F ield         | OpenFOAM: The Open Source CFD Toolbox
   \\    /   O peration     | Website:  https://openfoam.org
    \\  /    A nd           | Version:  13
     \\/     M anipulation  |
\*---------------------------------------------------------------------------*/
FoamFile
{
    format      ascii;
    class       extendedFeatureEdgeMesh;
    location    "constant/extendedFeatureEdgeMesh";
    object      outlet.extendedFeatureEdgeMesh;
}
// * * * * * * * * * * * * * * * * * * * * * * * * * * * * * * * * * * * * * //

// points

67
(
(-0.00246173 0.00574791 0)
(-0.00245634 0.0056244 0)
(-0.00247787 0.00587047 0)
(-0.00250462 0.00599117 0)
(-0.0025418 0.00610907 0)
(-0.00258911 0.00622328 0)
(-0.00264619 0.00633294 0)
(-0.00271261 0.0064372 0)
(-0.00278787 0.00653528 0)
(-0.00287139 0.00662642 0)
(-0.00296253 0.00670994 0)
(-0.00306061 0.0067852 0)
(-0.00316487 0.00685162 0)
(-0.00327453 0.0069087 0)
(-0.00338874 0.00695601 0)
(-0.00350665 0.00699319 0)
(-0.00435808 0.00695601 0)
(-0.00424017 0.00699319 0)
(-0.00447229 0.0069087 0)
(-0.00458195 0.00685162 0)
(-0.00468621 0.0067852 0)
(-0.00478429 0.00670994 0)
(-0.00487543 0.00662642 0)
(-0.00495895 0.00653528 0)
(-0.00503421 0.0064372 0)
(-0.00510063 0.00633294 0)
(-0.00515771 0.00622328 0)
(-0.00520502 0.00610907 0)
(-0.00524219 0.00599117 0)
(-0.00526895 0.00587047 0)
(-0.00528509 0.00574791 0)
(-0.00529048 0.0056244 0)
(-0.00528509 0.0055009 0)
(-0.00526895 0.00537833 0)
(-0.00524219 0.00525764 0)
(-0.00520502 0.00513974 0)
(-0.00515771 0.00502552 0)
(-0.00510063 0.00491587 0)
(-0.00503421 0.0048116 0)
(-0.00495895 0.00471353 0)
(-0.00487543 0.00462238 0)
(-0.00478429 0.00453886 0)
(-0.00468621 0.00446361 0)
(-0.00458195 0.00439718 0)
(-0.00447229 0.0043401 0)
(-0.00435808 0.00429279 0)
(-0.00424017 0.00425562 0)
(-0.00411948 0.00422886 0)
(-0.00399692 0.00421272 0)
(-0.00387341 0.00420733 0)
(-0.0037499 0.00421272 0)
(-0.00362734 0.00422886 0)
(-0.00350665 0.00425562 0)
(-0.00338874 0.00429279 0)
(-0.00327453 0.0043401 0)
(-0.00316487 0.00439718 0)
(-0.00306061 0.00446361 0)
(-0.00296253 0.00453886 0)
(-0.00287139 0.00462238 0)
(-0.00278787 0.00471353 0)
(-0.00271261 0.0048116 0)
(-0.00264619 0.00491587 0)
(-0.00258911 0.00502552 0)
(-0.0025418 0.00513974 0)
(-0.00250462 0.00525764 0)
(-0.00247787 0.00537833 0)
(-0.00246173 0.0055009 0)
)

// edges

66
(
(0 1)
(2 0)
(3 2)
(4 3)
(5 4)
(6 5)
(7 6)
(8 7)
(9 8)
(10 9)
(11 10)
(12 11)
(13 12)
(14 13)
(15 14)
(16 17)
(18 16)
(19 18)
(20 19)
(21 20)
(22 21)
(23 22)
(24 23)
(25 24)
(26 25)
(27 26)
(28 27)
(29 28)
(30 29)
(31 30)
(32 31)
(33 32)
(34 33)
(35 34)
(36 35)
(37 36)
(38 37)
(39 38)
(40 39)
(41 40)
(42 41)
(43 42)
(44 43)
(45 44)
(46 45)
(47 46)
(48 47)
(49 48)
(50 49)
(51 50)
(52 51)
(53 52)
(54 53)
(55 54)
(56 55)
(57 56)
(58 57)
(59 58)
(60 59)
(61 60)
(62 61)
(63 62)
(64 63)
(65 64)
(66 65)
(1 66)
)

// concaveStart mixedStart nonFeatureStart
0 0 0
// internalStart flatStart openStart multipleStart
0 0 0 66
// normals

66
(
(0.999048 0.0436152 0)
(0.991444 0.130534 0)
(0.976296 0.216439 0)
(0.953717 0.300706 0)
(0.92388 0.382683 0)
(0.887013 0.461744 0)
(0.843391 0.5373 0)
(0.79335 0.608766 0)
(0.737281 0.675586 0)
(0.675591 0.737277 0)
(0.608761 0.793354 0)
(0.5373 0.843391 0)
(0.461747 0.887012 0)
(0.382679 0.923881 0)
(0.300711 0.953715 0)
(-0.300711 0.953715 0)
(-0.38268 0.923881 0)
(-0.461746 0.887012 0)
(-0.5373 0.843391 0)
(-0.60876 0.793355 0)
(-0.675592 0.737276 0)
(-0.73728 0.675587 0)
(-0.793351 0.608765 0)
(-0.843395 0.537294 0)
(-0.88701 0.46175 0)
(-0.92388 0.382683 0)
(-0.953717 0.300706 0)
(-0.976296 0.216439 0)
(-0.991444 0.130534 0)
(-0.999048 0.0436152 0)
(-0.999048 -0.0436154 0)
(-0.991444 -0.130534 0)
(-0.976296 -0.216439 0)
(-0.953717 -0.300704 0)
(-0.923879 -0.382685 0)
(-0.88701 -0.461751 0)
(-0.843395 -0.537294 0)
(-0.793354 -0.608761 0)
(-0.737276 -0.675591 0)
(-0.675592 -0.737276 0)
(-0.60876 -0.793355 0)
(-0.5373 -0.843391 0)
(-0.461746 -0.887012 0)
(-0.382686 -0.923878 0)
(-0.300704 -0.953717 0)
(-0.216439 -0.976296 0)
(-0.130526 -0.991445 0)
(-0.0436228 -0.999048 0)
(0.0436232 -0.999048 0)
(0.130526 -0.991445 0)
(0.216439 -0.976296 0)
(0.300704 -0.953717 0)
(0.382685 -0.923879 0)
(0.461747 -0.887012 0)
(0.5373 -0.843391 0)
(0.608761 -0.793354 0)
(0.675591 -0.737277 0)
(0.737277 -0.67559 0)
(0.793353 -0.608762 0)
(0.843391 -0.5373 0)
(0.887013 -0.461745 0)
(0.923879 -0.382685 0)
(0.953717 -0.300704 0)
(0.976296 -0.216439 0)
(0.991444 -0.130534 0)
(0.999048 -0.0436154 0)
)

// normal volume types

66
(
0
0
0
0
0
0
0
0
0
0
0
0
0
0
0
0
0
0
0
0
0
0
0
0
0
0
0
0
0
0
0
0
0
0
0
0
0
0
0
0
0
0
0
0
0
0
0
0
0
0
0
0
0
0
0
0
0
0
0
0
0
0
0
0
0
0
)

// normalDirections

66
(
1(1)
1(1)
1(1)
1(1)
1(1)
1(1)
1(1)
1(1)
1(1)
1(1)
1(1)
1(1)
1(1)
1(1)
1(1)
1(1)
1(1)
1(1)
1(1)
1(1)
1(1)
1(1)
1(1)
1(1)
1(1)
1(1)
1(1)
1(1)
1(1)
1(1)
1(1)
1(1)
1(1)
1(1)
1(1)
1(1)
1(1)
1(1)
1(1)
1(1)
1(1)
1(1)
1(1)
1(1)
1(1)
1(1)
1(1)
1(1)
1(1)
1(1)
1(1)
1(1)
1(1)
1(1)
1(1)
1(1)
1(1)
1(1)
1(1)
1(1)
1(1)
1(1)
1(1)
1(1)
1(1)
1(1)
)

// edgeNormals

66
(
1(0)
1(1)
1(2)
1(3)
1(4)
1(5)
1(6)
1(7)
1(8)
1(9)
1(10)
1(11)
1(12)
1(13)
1(14)
1(15)
1(16)
1(17)
1(18)
1(19)
1(20)
1(21)
1(22)
1(23)
1(24)
1(25)
1(26)
1(27)
1(28)
1(29)
1(30)
1(31)
1(32)
1(33)
1(34)
1(35)
1(36)
1(37)
1(38)
1(39)
1(40)
1(41)
1(42)
1(43)
1(44)
1(45)
1(46)
1(47)
1(48)
1(49)
1(50)
1(51)
1(52)
1(53)
1(54)
1(55)
1(56)
1(57)
1(58)
1(59)
1(60)
1(61)
1(62)
1(63)
1(64)
1(65)
)

// featurePointNormals
0()
// featurePointEdges
0()
// regionEdges

66
(
0
1
2
3
4
5
6
7
8
9
10
11
12
13
14
15
16
17
18
19
20
21
22
23
24
25
26
27
28
29
30
31
32
33
34
35
36
37
38
39
40
41
42
43
44
45
46
47
48
49
50
51
52
53
54
55
56
57
58
59
60
61
62
63
64
65
)



// ************************************************************************* //
