/*--------------------------------*- C++ -*----------------------------------*\
| =========                 |                                                 |
| \\      /  F ield         | OpenFOAM: The Open Source CFD Toolbox           |
|  \\    /   O peration     | Version:  2412                                  |
|   \\  /    A nd           | Website:  www.openfoam.com                      |
|    \\/     M anipulation  |                                                 |
\*---------------------------------------------------------------------------*/
FoamFile
{
    version     2.0;
    format      ascii;
    arch        "LSB;label=32;scalar=64";
    class       extendedFeatureEdgeMesh;
    location    "constant/extendedFeatureEdgeMesh";
    object      top.extendedFeatureEdgeMesh;
}
// * * * * * * * * * * * * * * * * * * * * * * * * * * * * * * * * * * * * * //

// points

98
(
(-0.00819152 -0.00573576 0.01)
(-0.00766044 -0.00642788 0.01)
(-0.00707107 -0.00707107 0.01)
(-0.00642788 -0.00766044 0.01)
(-0.00573576 -0.00819152 0.01)
(-0.005 -0.00866025 0.01)
(-0.000568065 -0.000822984 0.01)
(-0.000748511 -0.000663123 0.01)
(-0.000885456 -0.000464723 0.01)
(-0.00939693 -0.0034202 0.01)
(-0.00906308 -0.00422618 0.01)
(-0.00866025 -0.005 0.01)
(-0.00422618 -0.00906308 0.01)
(-0.0034202 -0.00939693 0.01)
(-0.00258819 -0.00965926 0.01)
(-0.000354605 -0.000935016 0.01)
(-0.00996195 -0.000871557 0.01)
(-0.00984808 -0.00173648 0.01)
(-0.00965926 -0.00258819 0.01)
(-0.000970942 -0.000239316 0.01)
(-0.000120537 -0.000992709 0.01)
(-0.00173648 -0.00984808 0.01)
(-0.000871557 -0.00996195 0.01)
(-1.96005e-17 -0.01 0.01)
(-0.01 0 0.01)
(-0.001 0 0.01)
(-0.00996195 0.000871557 0.01)
(0.000871557 -0.00996195 0.01)
(0.00173648 -0.00984808 0.01)
(0.00258819 -0.00965926 0.01)
(0.000120537 -0.000992709 0.01)
(-0.000970942 0.000239316 0.01)
(-0.00939693 0.0034202 0.01)
(-0.00965926 0.00258819 0.01)
(-0.00984808 0.00173648 0.01)
(0.0034202 -0.00939693 0.01)
(0.00422618 -0.00906308 0.01)
(0.005 -0.00866025 0.01)
(0.000354605 -0.000935016 0.01)
(-0.00819152 0.00573576 0.01)
(-0.00866025 0.005 0.01)
(-0.00906308 0.00422618 0.01)
(-0.000885456 0.000464723 0.01)
(0.00573576 -0.00819152 0.01)
(0.00642788 -0.00766044 0.01)
(0.000568065 -0.000822984 0.01)
(-0.000748511 0.000663123 0.01)
(-0.00766044 0.00642788 0.01)
(-0.00707107 0.00707107 0.01)
(0.00707107 -0.00707107 0.01)
(0.000748511 -0.000663123 0.01)
(0.00766044 -0.00642788 0.01)
(-0.00642788 0.00766044 0.01)
(-0.000568065 0.000822984 0.01)
(0.000885456 -0.000464723 0.01)
(0.00819152 -0.00573576 0.01)
(-0.00573576 0.00819152 0.01)
(0.00866025 -0.005 0.01)
(-0.005 0.00866025 0.01)
(-0.000354605 0.000935016 0.01)
(0.00906308 -0.00422618 0.01)
(-0.00422618 0.00906308 0.01)
(0.00939693 -0.0034202 0.01)
(0.000970942 -0.000239316 0.01)
(-0.0034202 0.00939693 0.01)
(0.00965926 -0.00258819 0.01)
(-0.00258819 0.00965926 0.01)
(-0.000120537 0.000992709 0.01)
(0.00984808 -0.00173648 0.01)
(-0.00173648 0.00984808 0.01)
(0.00996195 -0.000871557 0.01)
(0.001 1.22465e-19 0.01)
(-0.000871557 0.00996195 0.01)
(0.01 1.22465e-18 0.01)
(7.27366e-18 0.01 0.01)
(0.000120537 0.000992709 0.01)
(0.00996195 0.000871557 0.01)
(0.000970942 0.000239316 0.01)
(0.000871557 0.00996195 0.01)
(0.00984808 0.00173648 0.01)
(0.00173648 0.00984808 0.01)
(0.00965926 0.00258819 0.01)
(0.00258819 0.00965926 0.01)
(0.000354605 0.000935016 0.01)
(0.00939693 0.0034202 0.01)
(0.000885456 0.000464723 0.01)
(0.0034202 0.00939693 0.01)
(0.00906308 0.00422618 0.01)
(0.00422618 0.00906308 0.01)
(0.00866025 0.005 0.01)
(0.005 0.00866025 0.01)
(0.000568065 0.000822984 0.01)
(0.00819152 0.00573576 0.01)
(0.000748511 0.000663123 0.01)
(0.00573576 0.00819152 0.01)
(0.00766044 0.00642788 0.01)
(0.00642788 0.00766044 0.01)
(0.00707107 0.00707107 0.01)
)

// edges

98
(
(0 1)
(1 2)
(2 3)
(3 4)
(4 5)
(6 7)
(7 8)
(9 10)
(10 11)
(11 0)
(5 12)
(12 13)
(13 14)
(15 6)
(16 17)
(17 18)
(18 9)
(8 19)
(20 15)
(14 21)
(21 22)
(22 23)
(24 16)
(19 25)
(26 24)
(23 27)
(27 28)
(28 29)
(30 20)
(25 31)
(32 33)
(33 34)
(34 26)
(29 35)
(35 36)
(36 37)
(38 30)
(39 40)
(40 41)
(41 32)
(31 42)
(37 43)
(43 44)
(45 38)
(42 46)
(47 39)
(48 47)
(44 49)
(50 45)
(49 51)
(52 48)
(46 53)
(54 50)
(51 55)
(56 52)
(55 57)
(58 56)
(53 59)
(57 60)
(61 58)
(60 62)
(63 54)
(64 61)
(62 65)
(66 64)
(59 67)
(65 68)
(69 66)
(68 70)
(71 63)
(72 69)
(70 73)
(74 72)
(67 75)
(73 76)
(77 71)
(78 74)
(76 79)
(80 78)
(79 81)
(82 80)
(75 83)
(81 84)
(85 77)
(86 82)
(84 87)
(88 86)
(87 89)
(90 88)
(83 91)
(89 92)
(93 85)
(94 90)
(92 95)
(91 93)
(96 94)
(95 97)
(97 96)
)

// concaveStart mixedStart nonFeatureStart
0 0 0
// internalStart flatStart openStart multipleStart
0 0 0 98
// normals
98{(0 0 1)}
// normal volume types

98
(
0
0
0
0
0
0
0
0
0
0
0
0
0
0
0
0
0
0
0
0
0
0
0
0
0
0
0
0
0
0
0
0
0
0
0
0
0
0
0
0
0
0
0
0
0
0
0
0
0
0
0
0
0
0
0
0
0
0
0
0
0
0
0
0
0
0
0
0
0
0
0
0
0
0
0
0
0
0
0
0
0
0
0
0
0
0
0
0
0
0
0
0
0
0
0
0
0
0
)

// normalDirections

98
(
1(1)
1(1)
1(1)
1(1)
1(1)
1(1)
1(1)
1(1)
1(1)
1(1)
1(1)
1(1)
1(1)
1(1)
1(1)
1(1)
1(1)
1(1)
1(1)
1(1)
1(1)
1(1)
1(1)
1(1)
1(1)
1(1)
1(1)
1(1)
1(1)
1(1)
1(1)
1(1)
1(1)
1(1)
1(1)
1(1)
1(1)
1(1)
1(1)
1(1)
1(1)
1(1)
1(1)
1(1)
1(1)
1(1)
1(1)
1(1)
1(1)
1(1)
1(1)
1(1)
1(1)
1(1)
1(1)
1(1)
1(1)
1(1)
1(1)
1(1)
1(1)
1(1)
1(1)
1(1)
1(1)
1(1)
1(1)
1(1)
1(1)
1(1)
1(1)
1(1)
1(1)
1(1)
1(1)
1(1)
1(1)
1(1)
1(1)
1(1)
1(1)
1(1)
1(1)
1(1)
1(1)
1(1)
1(1)
1(1)
1(1)
1(1)
1(1)
1(1)
1(1)
1(1)
1(1)
1(1)
1(1)
1(1)
)

// edgeNormals

98
(
1(0)
1(1)
1(2)
1(3)
1(4)
1(5)
1(6)
1(7)
1(8)
1(9)
1(10)
1(11)
1(12)
1(13)
1(14)
1(15)
1(16)
1(17)
1(18)
1(19)
1(20)
1(21)
1(22)
1(23)
1(24)
1(25)
1(26)
1(27)
1(28)
1(29)
1(30)
1(31)
1(32)
1(33)
1(34)
1(35)
1(36)
1(37)
1(38)
1(39)
1(40)
1(41)
1(42)
1(43)
1(44)
1(45)
1(46)
1(47)
1(48)
1(49)
1(50)
1(51)
1(52)
1(53)
1(54)
1(55)
1(56)
1(57)
1(58)
1(59)
1(60)
1(61)
1(62)
1(63)
1(64)
1(65)
1(66)
1(67)
1(68)
1(69)
1(70)
1(71)
1(72)
1(73)
1(74)
1(75)
1(76)
1(77)
1(78)
1(79)
1(80)
1(81)
1(82)
1(83)
1(84)
1(85)
1(86)
1(87)
1(88)
1(89)
1(90)
1(91)
1(92)
1(93)
1(94)
1(95)
1(96)
1(97)
)

// featurePointNormals
0()
// featurePointEdges
0()
// regionEdges

98
(
0
1
2
3
4
5
6
7
8
9
10
11
12
13
14
15
16
17
18
19
20
21
22
23
24
25
26
27
28
29
30
31
32
33
34
35
36
37
38
39
40
41
42
43
44
45
46
47
48
49
50
51
52
53
54
55
56
57
58
59
60
61
62
63
64
65
66
67
68
69
70
71
72
73
74
75
76
77
78
79
80
81
82
83
84
85
86
87
88
89
90
91
92
93
94
95
96
97
)



// ************************************************************************* //
