/*--------------------------------*- C++ -*----------------------------------*\
  =========                 |
  \\      /  F ield         | OpenFOAM: The Open Source CFD Toolbox
   \\    /   O peration     | Website:  https://openfoam.org
    \\  /    A nd           | Version:  13
     \\/     M anipulation  |
\*---------------------------------------------------------------------------*/
FoamFile
{
    format      ascii;
    class       extendedFeatureEdgeMesh;
    location    "constant/extendedFeatureEdgeMesh";
    object      walls.extendedFeatureEdgeMesh;
}
// * * * * * * * * * * * * * * * * * * * * * * * * * * * * * * * * * * * * * //

// points

26
(
(-0.000970942 0.000239316 0.01)
(-0.001 0 0.01)
(-0.000885456 0.000464723 0.01)
(-0.000748511 0.000663123 0.01)
(-0.000568065 0.000822984 0.01)
(-0.000354605 0.000935016 0.01)
(-0.000120537 0.000992709 0.01)
(0.000120537 0.000992709 0.01)
(0.000354605 0.000935016 0.01)
(0.000568065 0.000822984 0.01)
(0.000748511 0.000663123 0.01)
(0.000885456 0.000464723 0.01)
(0.000970942 0.000239316 0.01)
(0.001 1.22465e-19 0.01)
(0.000970942 -0.000239316 0.01)
(0.000885456 -0.000464723 0.01)
(0.000748511 -0.000663123 0.01)
(0.000568065 -0.000822984 0.01)
(0.000354605 -0.000935016 0.01)
(0.000120537 -0.000992709 0.01)
(-0.000120537 -0.000992709 0.01)
(-0.000354605 -0.000935016 0.01)
(-0.000568065 -0.000822984 0.01)
(-0.000748511 -0.000663123 0.01)
(-0.000885456 -0.000464723 0.01)
(-0.000970942 -0.000239316 0.01)
)

// edges

26
(
(0 1)
(2 0)
(3 2)
(4 3)
(5 4)
(6 5)
(7 6)
(8 7)
(9 8)
(10 9)
(11 10)
(12 11)
(13 12)
(14 13)
(15 14)
(16 15)
(17 16)
(18 17)
(19 18)
(20 19)
(21 20)
(22 21)
(23 22)
(24 23)
(25 24)
(1 25)
)

// concaveStart mixedStart nonFeatureStart
0 0 0
// internalStart flatStart openStart multipleStart
0 0 0 26
// normals

26
(
(-0.992709 0.120537 0)
(-0.935016 0.354605 0)
(-0.822984 0.568065 0)
(-0.663123 0.748511 0)
(-0.464723 0.885456 0)
(-0.239316 0.970942 0)
(0 1 0)
(0.239316 0.970942 0)
(0.464723 0.885456 0)
(0.663123 0.748511 0)
(0.822984 0.568065 0)
(0.935016 0.354605 0)
(0.992709 0.120537 0)
(0.992709 -0.120537 0)
(0.935016 -0.354605 0)
(0.822984 -0.568065 0)
(0.663123 -0.748511 0)
(0.464723 -0.885456 0)
(0.239316 -0.970942 0)
(0 -1 0)
(-0.239316 -0.970942 0)
(-0.464723 -0.885456 0)
(-0.663123 -0.748511 0)
(-0.822984 -0.568065 0)
(-0.935016 -0.354605 0)
(-0.992709 -0.120537 0)
)

// normal volume types

26
(
0
0
0
0
0
0
0
0
0
0
0
0
0
0
0
0
0
0
0
0
0
0
0
0
0
0
)

// normalDirections

26
(
1(1)
1(1)
1(1)
1(1)
1(1)
1(1)
1(1)
1(1)
1(1)
1(1)
1(1)
1(1)
1(1)
1(1)
1(1)
1(1)
1(1)
1(1)
1(1)
1(1)
1(1)
1(1)
1(1)
1(1)
1(1)
1(1)
)

// edgeNormals

26
(
1(0)
1(1)
1(2)
1(3)
1(4)
1(5)
1(6)
1(7)
1(8)
1(9)
1(10)
1(11)
1(12)
1(13)
1(14)
1(15)
1(16)
1(17)
1(18)
1(19)
1(20)
1(21)
1(22)
1(23)
1(24)
1(25)
)

// featurePointNormals
0()
// featurePointEdges
0()
// regionEdges

26
(
0
1
2
3
4
5
6
7
8
9
10
11
12
13
14
15
16
17
18
19
20
21
22
23
24
25
)



// ************************************************************************* //
