/*--------------------------------*- C++ -*----------------------------------*\
| =========                 |                                                 |
| \\      /  F ield         | OpenFOAM: The Open Source CFD Toolbox           |
|  \\    /   O peration     | Version:  2412                                  |
|   \\  /    A nd           | Website:  www.openfoam.com                      |
|    \\/     M anipulation  |                                                 |
\*---------------------------------------------------------------------------*/
FoamFile
{
    version     2.0;
    format      ascii;
    arch        "LSB;label=32;scalar=64";
    class       extendedFeatureEdgeMesh;
    location    "constant/extendedFeatureEdgeMesh";
    object      walls.extendedFeatureEdgeMesh;
}
// * * * * * * * * * * * * * * * * * * * * * * * * * * * * * * * * * * * * * //

// points

54
(
(-0.001 0 0.02)
(-0.000970942 0.000239316 0.02)
(-0.000885456 0.000464723 0.02)
(-0.000748511 0.000663123 0.02)
(-0.000568065 0.000822984 0.02)
(-0.000354605 0.000935016 0.02)
(-0.000120537 0.000992709 0.02)
(0.000120537 0.000992709 0.02)
(0.000354605 0.000935016 0.02)
(0.000568065 0.000822984 0.02)
(0.000748511 0.000663123 0.02)
(0.000885456 0.000464723 0.02)
(0.000970942 0.000239316 0.02)
(0.001 1.22465e-19 0.02)
(-0.00498132 0.00474087 0)
(-0.00475694 0.00451649 0)
(-0.00448825 0.00434767 0)
(-0.00515015 0.00500956 0)
(-0.00525495 0.00530908 0)
(-0.00418874 0.00424286 0)
(-0.00387341 0.00420733 0)
(-0.00529048 0.0056244 0)
(-0.00355808 0.00424286 0)
(-0.00525495 0.00593973 0)
(-0.00325857 0.00434767 0)
(-0.00515015 0.00623925 0)
(-0.00298988 0.00451649 0)
(-0.00498132 0.00650793 0)
(-0.00448825 0.00690114 0)
(-0.00475694 0.00673231 0)
(-0.00418874 0.00700594 0)
(-0.00355808 0.00700594 0)
(-0.00387341 0.00704147 0)
(-0.00325857 0.00690114 0)
(-0.0027655 0.00474087 0)
(-0.00298988 0.00673231 0)
(-0.0027655 0.00650793 0)
(-0.00259667 0.00623925 0)
(-0.00249187 0.00593973 0)
(-0.00245634 0.0056244 0)
(-0.00259667 0.00500956 0)
(-0.00249187 0.00530908 0)
(0.000970942 -0.000239316 0.02)
(0.000885456 -0.000464723 0.02)
(0.000748511 -0.000663123 0.02)
(0.000568065 -0.000822984 0.02)
(0.000354605 -0.000935016 0.02)
(0.000120537 -0.000992709 0.02)
(-0.000120537 -0.000992709 0.02)
(-0.000354605 -0.000935016 0.02)
(-0.000568065 -0.000822984 0.02)
(-0.000748511 -0.000663123 0.02)
(-0.000885456 -0.000464723 0.02)
(-0.000970942 -0.000239316 0.02)
)

// edges

54
(
(0 1)
(1 2)
(2 3)
(3 4)
(4 5)
(5 6)
(6 7)
(7 8)
(8 9)
(9 10)
(10 11)
(11 12)
(12 13)
(14 15)
(15 16)
(17 14)
(18 17)
(16 19)
(19 20)
(21 18)
(20 22)
(23 21)
(22 24)
(25 23)
(24 26)
(27 25)
(28 29)
(29 27)
(30 28)
(31 32)
(32 30)
(33 31)
(26 34)
(35 33)
(36 35)
(37 36)
(38 37)
(39 38)
(34 40)
(41 39)
(40 41)
(13 42)
(42 43)
(43 44)
(44 45)
(45 46)
(46 47)
(47 48)
(48 49)
(49 50)
(50 51)
(51 52)
(52 53)
(53 0)
)

// concaveStart mixedStart nonFeatureStart
0 0 0
// internalStart flatStart openStart multipleStart
0 0 0 54
// normals

54
(
(-0.992709 0.120537 0)
(-0.935016 0.354605 0)
(-0.822984 0.568065 0)
(-0.663123 0.748511 0)
(-0.464723 0.885456 0)
(-0.239316 0.970942 0)
(0 1 -0)
(0.239316 0.970942 -0)
(0.464723 0.885456 -0)
(0.663123 0.748511 -0)
(0.822984 0.568065 -0)
(0.935016 0.354605 -0)
(0.992709 0.120537 -0)
(-0 0 -1)
(-0 0 -1)
(0 -0 -1)
(-0 -0 -1)
(-0 0 -1)
(-0 0 -1)
(-0 -0 -1)
(0 0 -1)
(-0 0 -1)
(0 0 -1)
(-0 0 -1)
(0 -0 -1)
(-0 0 -1)
(0 0 -1)
(0 0 -1)
(0 0 -1)
(0 0 -1)
(0 0 -1)
(0 -0 -1)
(0 0 -1)
(0 0 -1)
(0 0 -1)
(0 0 -1)
(0 0 -1)
(0 0 -1)
(0 0 -1)
(0 0 -1)
(0 0 -1)
(0.992709 -0.120537 0)
(0.935016 -0.354605 0)
(0.822984 -0.568065 0)
(0.663123 -0.748511 0)
(0.464723 -0.885456 0)
(0.239316 -0.970942 0)
(0 -1 0)
(-0.239316 -0.970942 0)
(-0.464723 -0.885456 0)
(-0.663123 -0.748511 0)
(-0.822984 -0.568065 0)
(-0.935016 -0.354605 0)
(-0.992709 -0.120537 0)
)

// normal volume types

54
(
0
0
0
0
0
0
0
0
0
0
0
0
0
0
0
0
0
0
0
0
0
0
0
0
0
0
0
0
0
0
0
0
0
0
0
0
0
0
0
0
0
0
0
0
0
0
0
0
0
0
0
0
0
0
)

// normalDirections

54
(
1(1)
1(1)
1(1)
1(1)
1(1)
1(1)
1(1)
1(1)
1(1)
1(1)
1(1)
1(1)
1(1)
1(1)
1(1)
1(1)
1(1)
1(1)
1(1)
1(1)
1(1)
1(1)
1(1)
1(1)
1(1)
1(1)
1(1)
1(1)
1(1)
1(1)
1(1)
1(1)
1(1)
1(1)
1(1)
1(1)
1(1)
1(1)
1(1)
1(1)
1(1)
1(1)
1(1)
1(1)
1(1)
1(1)
1(1)
1(1)
1(1)
1(1)
1(1)
1(1)
1(1)
1(1)
)

// edgeNormals

54
(
1(0)
1(1)
1(2)
1(3)
1(4)
1(5)
1(6)
1(7)
1(8)
1(9)
1(10)
1(11)
1(12)
1(13)
1(14)
1(15)
1(16)
1(17)
1(18)
1(19)
1(20)
1(21)
1(22)
1(23)
1(24)
1(25)
1(26)
1(27)
1(28)
1(29)
1(30)
1(31)
1(32)
1(33)
1(34)
1(35)
1(36)
1(37)
1(38)
1(39)
1(40)
1(41)
1(42)
1(43)
1(44)
1(45)
1(46)
1(47)
1(48)
1(49)
1(50)
1(51)
1(52)
1(53)
)

// featurePointNormals
0()
// featurePointEdges
0()
// regionEdges

54
(
0
1
2
3
4
5
6
7
8
9
10
11
12
13
14
15
16
17
18
19
20
21
22
23
24
25
26
27
28
29
30
31
32
33
34
35
36
37
38
39
40
41
42
43
44
45
46
47
48
49
50
51
52
53
)



// ************************************************************************* //
