/*--------------------------------*- C++ -*----------------------------------*\
| =========                 |                                                 |
| \\      /  F ield         | OpenFOAM: The Open Source CFD Toolbox           |
|  \\    /   O peration     | Version:  v2012                                 |
|   \\  /    A nd           | Website:  www.openfoam.com                      |
|    \\/     M anipulation  |                                                 |
\*---------------------------------------------------------------------------*/
FoamFile
{
    version     2.0;
    format      ascii;
    class       dictionary;
    location    "system";
    object      blockMeshDict;
}

scale 0.001;  

vertices
(
    (-30 -30 -5) // 0
    ( 30 -30 -5) // 1
    ( 30  30 -5) // 2
    (-30  30 -5) // 3
    (-30 -30  30) // 4
    ( 30 -30  30) // 5
    ( 30  30  30) // 6
    (-30  30  30) // 7
);

blocks
(
    hex (0 1 2 3 4 5 6 7) (40 40 40) simpleGrading (1 1 1) 
);

edges
(
);

boundary
(
    
);

mergePatchPairs ();

