/*--------------------------------*- C++ -*----------------------------------*\
| =========                 |                                                 |
| \\      /  F ield         | OpenFOAM: The Open Source CFD Toolbox           |
|  \\    /   O peration     | Version:  v2012                                 |
|   \\  /    A nd           | Website:  www.openfoam.com                      |
|    \\/     M anipulation  |                                                 |
\*---------------------------------------------------------------------------*/

FoamFile
{
    version     2.0;
    format      ascii;
    class       dictionary;
    location    "system";
    object      fvSchemes;
}

ddtSchemes
{
    default         Euler;
}

gradSchemes
{
    default         Gauss linear;
    grad(p_rgh)     Gauss linear;
    grad(U)         Gauss linear;
}

divSchemes
{
    div(rhoPhi,U)                      Gauss linearUpwind grad(U);
    div(phi,U)                         Gauss linearUpwind grad(U);    
    div(phi,alpha)                     Gauss vanLeer;
    div(phirb,alpha)                   Gauss interfaceCompression;
    div(phi,k)                         Gauss upwind;
    div(phi,epsilon)                   Gauss upwind;
    div((nuEff*dev(T(grad(U)))))       Gauss linear;
    div(((rho*nuEff)*dev2(T(grad(U))))) Gauss linear;
}

laplacianSchemes
{
    default         Gauss linear corrected;
}

interpolationSchemes
{
    default         linear;
}

snGradSchemes
{
    default         corrected;
}

fluxRequired
{
    default         no;
    p_rgh;
    pcorr;
    alpha.water;
}
